src/case9_solved.m
function mpc = case9_solved
%CASE9_SOLVED

%% MATPOWER Case Format : Version 2
mpc.version = '2';

%%-----  Power Flow Data  -----%%
%% system MVA base
mpc.baseMVA = 100;

%% bus data
%	bus_i	type	Pd	Qd	Gs	Bs	area	Vm	Va	baseKV	zone	Vmax	Vmin	lam_P	lam_Q	mu_Vmax	mu_Vmin
mpc.bus = [
	1	3	0	0	0	0	1	1.1	3.27769449e-09	345	1	1.1	0.9	24.7557	0.0000	8.2164	0.0000;
	2	2	0	0	0	0	1	1.09735464	4.89364376	345	1	1.1	0.9	24.0345	-0.0000	0.0000	0.0000;
	3	2	0	0	0	0	1	1.08662032	3.24954152	345	1	1.1	0.9	24.0759	-0.0000	0.0000	0.0000;
	4	1	0	0	0	0	1	1.09422152	-2.46292406	345	1	1.1	0.9	24.7559	0.0043	0.0000	0.0000;
	5	1	90	30	0	0	1	1.0844485	-3.98198235	345	1	1.1	0.9	24.9985	0.0265	0.0000	0.0000;
	6	1	0	0	0	0	1	1.1	0.602889062	345	1	1.1	0.9	24.0759	0.0000	75.4306	0.0000;
	7	1	100	35	0	0	1	1.0894895	-1.19627215	345	1	1.1	0.9	24.2539	0.0355	0.0000	0.0000;
	8	1	0	0	0	0	1	1.1	0.9056331	345	1	1.1	0.9	24.0345	-0.0000	77.5684	0.0000;
	9	1	125	50	0	0	1	1.07175546	-4.6152386	345	1	1.1	0.9	24.9985	0.1115	0.0000	0.0000;
];

%% generator data
%	bus	Pg	Qg	Qmax	Qmin	Vg	mBase	status	Pmax	Pmin	Pc1	Pc2	Qc1min	Qc1max	Qc2min	Qc2max	ramp_agc	ramp_10	ramp_30	ramp_q	apf	mu_Pmax	mu_Pmin	mu_Qmax	mu_Qmin
mpc.gen = [
	1	89.7987077	12.9656413	300	-300	1.1	100	1	250	10	0	0	0	0	0	0	0	0	0	0	0	0.0000	0.0000	0.0000	0.0000;
	2	134.320601	0.0318453242	300	-300	1.09735464	100	1	300	10	0	0	0	0	0	0	0	0	0	0	0	0.0000	0.0000	0.0000	0.0000;
	3	94.1873804	-22.6342059	300	-300	1.08662032	100	1	270	10	0	0	0	0	0	0	0	0	0	0	0	0.0000	0.0000	0.0000	0.0000;
];

%% branch data
%	fbus	tbus	r	x	b	rateA	rateB	rateC	ratio	angle	status	angmin	angmax	Pf	Qf	Pt	Qt	mu_Sf	mu_St	mu_angmin	mu_angmax
mpc.branch = [
	1	4	0	0.0576	0	250	250	250	0	0	1	-360	360	89.7987	12.9656	-89.7987	-9.0470	0.0000	0.0000	0.0000	0.0000;
	4	5	0.017	0.092	0.158	250	250	250	0	0	1	-360	360	35.2212	-3.8901	-35.0407	-13.8824	0.0000	0.0000	0.0000	0.0000;
	5	6	0.039	0.17	0.358	150	150	150	0	0	1	-360	360	-54.9593	-16.1176	55.9691	-22.1908	0.0000	0.0000	0.0000	0.0000;
	3	6	0	0.0586	0	300	300	300	0	0	1	-360	360	94.1874	-22.6342	-94.1874	27.2912	0.0000	0.0000	0.0000	0.0000;
	6	7	0.0119	0.1008	0.209	150	150	150	0	0	1	-360	360	38.2183	-5.1005	-38.0691	-18.6838	0.0000	0.0000	0.0000	0.0000;
	7	8	0.0085	0.072	0.149	250	250	250	0	0	1	-360	360	-61.9309	-16.3161	62.2096	0.8189	0.0000	0.0000	0.0000	0.0000;
	8	2	0	0.0625	0	250	250	250	0	0	1	-360	360	-134.3206	9.3323	134.3206	0.0319	0.0000	0.0000	0.0000	0.0000;
	8	9	0.032	0.161	0.306	250	250	250	0	0	1	-360	360	72.1110	-10.1513	-70.7173	-18.9241	0.0000	0.0000	0.0000	0.0000;
	9	4	0.01	0.085	0.176	250	250	250	0	0	1	-360	360	-54.2827	-31.0759	54.5775	12.9370	0.0000	0.0000	0.0000	0.0000;
];

%%-----  OPF Data  -----%%
%% generator cost data
%	1	startup	shutdown	n	x1	y1	...	xn	yn
%	2	startup	shutdown	n	c(n-1)	...	c0
mpc.gencost = [
	2	1500	0	3	0.11	5	150;
	2	2000	0	3	0.085	1.2	600;
	2	3000	0	3	0.1225	1	335;
];
